%chk=16_1.chk
%mem=8gb
%nproc=8
#p mp2/6-311g(d,p)

Single point energy calculation of a hydronium cluster

1 1 
O 3.9362 -0.1687 1.3035
H 4.8201 -0.1006 1.6803
H 4.0408 -0.3645 0.3423
O 0.2376 0.8046 3.4444
H 0.8778 1.2354 2.8318
H 0.4357 1.1216 4.3324
O 1.8361 1.5856 1.4324
H 2.7031 1.1313 1.3984
H 1.8888 2.3935 0.8820
O -1.6519 -0.9464 2.0650
H -1.0712 -0.5929 1.3464
H -1.1964 -0.6912 2.8792
O -1.4650 1.5440 -1.6246
H -0.9204 1.0116 -0.9974
H -1.4580 2.4511 -1.2665
O 3.7792 -0.5858 -1.3606
H 4.4947 -0.7424 -1.9862
H 3.2467 0.1839 -1.7076
O -3.6123 -0.1327 -1.1436
H -3.9149 0.0790 -0.2411
H -2.9910 0.5828 -1.3884
O 1.5864 3.5701 -0.4596
H 0.6373 3.8196 -0.3639
H 2.0842 4.3892 -0.5566
O 1.8204 -1.6376 2.5399
H 1.2897 -0.9596 2.9815
H 2.6134 -1.1935 2.1915
O -0.0508 0.7934 -3.7817
H -0.6867 1.2030 -3.1495
H -0.2367 1.1460 -4.6586
O -1.8197 2.3903 1.9552
H -2.6401 1.8713 1.8660
H -1.2388 1.8985 2.5556
O 1.4271 -2.0329 -1.0647
H 2.3463 -1.7367 -1.2083
H 1.4410 -2.7871 -0.4411
O -0.0197 -0.0079 0.0981
H 0.6642 0.5492 0.5260
H 0.4805 -0.7366 -0.3375
O -0.4951 -1.8857 -3.0222
H 0.2920 -2.0250 -2.4578
H -0.3724 -1.0171 -3.4495
O -1.0856 3.8724 -0.0954
H -1.3587 3.3924 0.7327
H -1.5738 4.7026 -0.1140
O -1.6687 -3.2939 0.5823
H -1.7594 -2.6315 1.2921
H -0.7641 -3.6449 0.6832
O -3.8959 0.4931 1.5863
H -3.2350 -0.1692 1.8888
H -4.6941 0.3774 2.1130
O 2.1919 1.3357 -2.1557
H 1.9786 2.1572 -1.6818
H 1.4995 1.1878 -2.8262
O 1.0664 -3.7358 1.0513
H 1.4535 -4.5649 1.3513
H 1.3130 -3.0393 1.7078
O -2.5541 -2.3869 -1.6381
H -3.0324 -1.5021 -1.4257
H -1.7524 -2.1870 -2.2536
H -2.2055 -2.7983 -0.7704





                            




