%chk=16_1.chk
%mem=8gb
%nproc=8
#p mp2/6-311g(d,p)

Single point energy calculation of a hydronium clusr

1 1
O 3.7305 1.1638 1.4157
H 4.5064 1.6097 1.7725
H 3.8857 1.0483 0.4463
O -0.6080 1.0859 3.4645
H 0.0944 1.4924 2.9120
H -0.5483 1.4836 4.3391
O 1.0971 2.0223 1.5426
H 2.0653 1.8895 1.5478
H 0.8992 2.8055 0.9897
O -1.2259 -1.3617 2.0977
H -0.8061 -0.8874 1.3405
H -0.9505 -0.8431 2.8708
O -1.8846 0.9088 -1.6983
H -1.2008 0.6148 -1.0502
H -2.1996 1.7718 -1.3683
O 3.7818 0.8009 -1.2555
H 4.5300 0.9306 -1.8484
H 3.0160 1.3279 -1.6256
O -3.3195 -1.4059 -1.2067
H -3.6704 -1.3115 -0.3000
H -2.9878 -0.5198 -1.4572
O 0.2516 3.8263 -0.3731
H -0.7318 3.7409 -0.3584
H 0.4463 4.7678 -0.4349
O 2.4997 -1.0901 2.5799
H 2.5473 -1.0816 3.5409
H 3.0177 -0.3266 2.2601
O -0.2198 0.7402 -3.7884
H -0.9808 0.8876 -3.1774
H -0.4883 1.0244 -4.6686
O -2.8087 1.6996 1.7712
H -2.1249 1.5214 2.4417
H -3.3316 0.8833 1.6802
O 2.0991 -1.3975 -1.0500
H 2.8583 -0.7960 -1.1703
H 2.3767 -2.1329 -0.4680
O -0.0171 -0.0226 0.0560
H 0.4149 0.7069 0.5510
H 0.7188 -0.5287 -0.3563
O 0.2539 -1.9319 -3.0179
H 1.0450 -1.7812 -2.4633
H 0.0680 -1.0809 -3.4571
O -2.3965 3.2629 -0.2755
H -2.5981 2.7285 0.5454
H -3.1156 3.8938 -0.3869
O -0.3622 -3.5722 0.6642
H -0.6561 -2.9753 1.3778
H 0.6069 -3.6320 0.7479
O -3.8286 -0.9365 1.4924
H -2.9564 -1.2405 1.8369
H -4.5168 -1.3536 2.0216
O 1.6562 2.0393 -2.1227
H 1.0652 1.6467 -2.7922
H 1.1447 2.6963 -1.6199
O 2.4260 -3.2416 0.9593
H 3.0682 -3.9374 1.1347
H 2.5249 -2.5572 1.6617
O -1.4898 -3.0992 -1.5899
H -2.2739 -2.4461 -1.4190
H -0.8125 -2.6433 -2.2140
H -1.0318 -3.3233 -0.7071
H 0.0680 -1.0809 -3.4571
O -2.3965 3.2629 -0.2755
H -2.5981 2.7285 0.5454
H -3.1156 3.8938 -0.3869
O -0.3622 -3.5722 0.6642
H -0.6561 -2.9753 1.3778
H 0.6069 -3.6320 0.7479
O -3.8286 -0.9365 1.4924
H -2.9564 -1.2405 1.8369
H -4.5168 -1.3536 2.0216
O 1.6562 2.0393 -2.1227
H 1.0652 1.6467 -2.7922
H 1.1447 2.6963 -1.6199
O 2.4260 -3.2416 0.9593
H 3.0682 -3.9374 1.1347
H 2.5249 -2.5572 1.6617
O -1.4898 -3.0992 -1.5899
H -2.2739 -2.4461 -1.4190
H -0.8125 -2.6433 -2.2140
H -1.0318 -3.3233 -0.7071






                            




