%chk=21_1.chk
%mem=8gb
%nproc=8
#p mp2/6-311g(d,p)

Single point energy calculation of a hydronium cluster

1 1 
O -3.3020 1.6919 1.0758
H -2.8772 1.8347 0.2064
H -2.7345 2.1515 1.7229
O -0.0806 0.3441 2.6952
H -0.0273 0.2226 1.7168
H 0.8361 0.2444 3.0130
O -0.0661 3.5793 -1.7934
H -0.4309 4.4117 -2.1133
H -0.8246 2.9474 -1.6713
O -0.6020 -2.6219 -0.6463
H 0.0190 -2.9072 -1.3428
H -0.4567 -3.1879 0.1404
O -1.7891 1.6487 -1.2492
H -1.1603 1.0035 -0.8447
H -2.2096 1.1732 -1.9949
O -0.0775 -3.6664 1.8214
H 0.0265 -4.5569 2.1725
H 0.8098 -3.2247 1.8573
O 2.1959 -2.3229 1.6388
H 2.4586 -1.5312 2.1391
H 2.6796 -2.3070 0.7964
O 0.0339 -0.4643 -3.4343
H 0.6331 0.2995 -3.4133
H 0.5509 -1.2674 -3.2522
O -1.8973 -1.7384 2.7609
H -1.2380 -1.0400 2.9459
H -1.3778 -2.5270 2.5141
O 3.1189 2.1748 1.2860
H 3.8248 2.8255 1.3671
H 2.2618 2.6862 1.1965
O 1.6596 1.9065 -3.0784
H 1.0739 2.6178 -2.7288
H 2.1504 2.2825 -3.8171
O -3.1719 -1.7328 -1.0323
H -3.1652 -1.2006 -1.8493
H -2.3023 -2.1804 -0.9980
O 2.6983 0.1027 3.0277
H 2.9735 0.8819 2.4951
H 3.2153 0.1120 3.8404
O -0.0220 -0.0225 -0.0068
H -0.2122 -0.9642 -0.2284
H 0.8884 0.1515 -0.3226
O 0.8428 3.3727 0.9018
H 0.5229 3.5645 0.0031
H 0.0727 3.3200 1.4980
O 1.3634 -2.8483 -2.6011
H 1.5477 -3.5685 -3.2137
H 2.1900 -2.6673 -2.1020
O 3.3843 -1.9902 -0.9631
H 4.3281 -2.1368 -1.0891
H 3.2331 -1.0136 -0.9832
O -1.2508 2.7631 2.6775
H -1.4051 3.2192 3.5117
H -0.8230 1.8971 2.8830
O -2.5850 -0.0943 -3.2328
H -3.0567 -0.0114 -4.0677
H -1.6394 -0.3025 -3.4391
O 2.5845 0.5604 -0.8746
H 2.9255 1.1681 -0.1843
H 2.4214 1.0907 -1.6824
O -3.7270 -0.8082 1.2615
H -3.0245 -1.2251 1.8829
H -3.5938 0.2095 1.2476
H -3.5658 -1.1676 0.3125





                            




