%chk=21_5.chk
%mem=8gb
%nproc=8
#p mp2/6-311g(d,p)

Single point energy calculation of a hydronium 

1 1
O -1.3431 1.8589 3.1102
H -0.4959 2.1010 2.6905
H -1.1875 0.9929 3.5330
O -1.5581 -1.6342 1.4930
H -1.0268 -1.0595 0.8944
H -1.3842 -2.5464 1.1954
O 3.2173 1.0833 2.1193
H 3.7038 1.5781 2.7881
H 2.3677 1.5700 1.9477
O -1.6357 0.9380 -2.1349
H -0.9822 0.8877 -2.8739
H -2.3888 0.3480 -2.3351
O 0.8668 2.0911 1.4208
H 0.4958 1.3659 0.8593
H 0.8955 2.8742 0.8376
O -3.5281 -1.0449 -2.0383
H -4.2359 -1.3556 -2.6124
H -2.8201 -1.7385 -2.0343
O -1.4133 -2.6441 -1.9795
H -1.1314 -3.2192 -1.2486
H -0.6411 -2.5067 -2.5559
O 2.4872 2.2100 -2.2149
H 3.0479 1.6797 -1.6108
H 3.0879 2.6288 -2.8421
O -3.7645 -0.1909 0.5812
H -3.1752 -0.8582 0.9806
H -3.8485 -0.4363 -0.3628
O 2.0039 -3.2682 1.1342
H 2.6818 -3.9088 1.3764
H 1.9700 -2.5908 1.8697
O 3.9716 0.6111 -0.4457
H 3.8199 0.8135 0.5088
H 4.9238 0.5129 -0.5588
O -1.9657 3.1443 -0.6425
H -1.0842 3.5501 -0.6062
H -1.9128 2.4440 -1.3317
O -0.5316 -3.9898 0.3649
H 0.4013 -3.8485 0.6393
H -0.7435 -4.9140 0.5342
O -0.0804 0.0542 -0.0981
H -0.6585 0.3373 -0.8508
H 0.6468 -0.4781 -0.4790
O 1.9193 -1.3555 2.9174
H 2.4178 -0.5407 2.7360
H 1.0863 -1.1013 3.3586
O 0.4912 0.7034 -3.7359
H 1.2298 1.1334 -3.2768
H 0.7046 -0.2448 -3.7897
O 1.0148 -2.0577 -3.3269
H 1.4803 -2.6608 -3.9157
H 1.5645 -1.9430 -2.5204
O -0.6561 -0.7547 3.8708
H -1.0078 -1.1767 4.6623
H -1.0762 -1.1900 3.0896
O 0.8182 3.8856 -0.7000
H 1.0638 4.8110 -0.8065
H 1.3598 3.3701 -1.3330
O 2.1424 -1.4697 -0.9402
H 2.2147 -2.1614 -0.2478
H 2.8926 -0.8579 -0.8181
O -3.1599 2.1408 1.3464
H -3.4570 1.2069 1.0235
H -2.4851 2.0230 2.1067
H -2.6835 2.6195 0.5678








                            




