%chk=22_4.chk
%mem=8gb
%nproc=8
#p mp2/6-311g(d,p) 

Single point energy calculation of a hydronium cluster

1 1
O 0.5274 -3.7961 -0.7657
H -0.1462 -3.2046 -1.1539
H 0.2933 -3.8901 0.1763
O 1.2598 -1.3131 2.1080
H 0.8756 -0.8217 1.3457
H 1.1261 -0.7303 2.8763
O -3.6177 -2.1817 -0.6102
H -4.0692 -2.9311 -1.0115
H -2.7571 -2.0646 -1.0857
O 2.2965 1.2410 -1.3916
H 2.0393 2.1539 -1.6138
H 3.0392 1.2957 -0.7541
O -1.1869 -1.7562 -1.6334
H -0.7244 -1.0903 -1.0761
H -1.0642 -1.4382 -2.5506
O 4.0859 1.1623 0.6750
H 4.9476 1.5681 0.8137
H 3.4679 1.5385 1.3553
O 2.2676 2.2129 2.2884
H 1.6874 1.7134 2.8864
H 1.7158 2.9048 1.8873
O -0.9515 1.8976 -2.7058
H -0.3318 2.5885 -2.4200
H -1.8024 2.0517 -2.2612
O 3.6131 -1.6137 0.6422
H 2.9213 -1.5928 1.3298
H 3.9566 -0.7021 0.5984
O -2.1704 0.4027 2.9487
H -2.9399 0.5541 3.5078
H -2.2801 -0.5190 2.5726
O -4.7257 0.3016 -0.2309
H -4.3947 -0.6075 -0.3881
H -5.6759 0.2379 -0.0979
O 2.2064 -0.9691 -3.0477
H 1.3256 -0.8980 -3.4600
H 2.3642 -0.1072 -2.6155
O 0.4142 0.7064 3.8791
H -0.5338 0.6435 3.6310
H 0.4519 0.7434 4.8405
O 0.2126 0.0259 -0.0534
H 0.9367 0.4486 -0.5682
H -0.3735 0.7613 0.2161
O -2.4752 -2.0054 1.9726
H -2.9445 -2.1723 1.1367
H -1.7541 -2.6587 2.0224
O 0.9980 3.7107 -1.6481
H 1.2821 4.5280 -2.0704
H 0.8084 3.9205 -0.7079
O 0.3555 3.9405 1.0195
H 0.0570 4.7449 1.4561
H -0.3909 3.2922 1.0591
O -0.1504 -3.6158 1.9755
H 0.0676 -4.2932 2.6240
H 0.4317 -2.8391 2.1487
O -0.4230 -0.4022 -3.8997
H -0.6831 -0.3942 -4.8262
H -0.6049 0.5020 -3.5351
O -1.5148 2.0489 0.8685
H -1.9130 1.5360 1.6038
H -2.2083 2.2208 0.1986
O 2.7882 -2.8349 -1.4334
H 3.1769 -2.3565 -0.6146
H 1.9095 -3.2824 -1.1519
H 2.5643 -2.1222 -2.1404
O -3.3173 2.3433 -1.1845
H -3.9411 1.6105 -0.9555
H -3.8502 3.1114 -1.4139





                            




