%chk=22_6.chk
%mem=8gb
%nproc=8
#p mp2/6-311g(d,p)

Single point energy calculation of a hydronium cluster

1 1
O -1.9726 -1.5411 2.9833
H -1.0331 -1.2686 2.9707
H -2.0289 -2.3399 2.4259
O -2.1549 -1.6482 -0.8453
H -1.4147 -1.0485 -0.5836
H -2.0067 -1.8439 -1.7892
O 2.4276 -2.3595 2.0870
H 2.6952 -2.8275 2.8855
H 1.7873 -1.6485 2.3639
O -1.1120 2.6259 -0.2167
H -0.4331 3.2130 -0.6007
H -1.8797 2.6346 -0.8256
O 0.5747 -0.5228 2.5218
H 0.3143 -0.2545 1.6073
H 0.7629 0.3163 2.9915
O -3.1201 2.0982 -1.9941
H -3.6710 2.6519 -2.5570
H -2.4807 1.6180 -2.5808
O -1.2074 0.8354 -3.3332
H -1.1709 -0.1256 -3.4783
H -0.2921 1.1616 -3.3249
O 2.0461 2.3746 0.9753
H 1.8239 3.0045 0.2705
H 2.9661 2.0800 0.8148
O -3.9845 0.2584 -0.0466
H -3.4923 -0.4997 -0.4212
H -3.8688 0.9790 -0.6938
O 1.1392 -2.9648 -2.3421
H 1.6709 -3.6509 -2.7602
H 0.9753 -3.2643 -1.3990
O 4.1010 -1.3293 0.2157
H 3.5922 -1.7443 0.9518
H 4.7818 -1.9578 -0.0471
O -1.7224 2.4291 2.4520
H -0.8696 2.3733 2.9244
H -1.5002 2.6620 1.5268
O -1.1685 -2.0015 -3.4414
H -0.3331 -2.4462 -3.1741
H -1.5297 -2.4873 -4.1904
O -0.1850 0.0434 -0.0281
H -0.4746 0.9806 -0.1216
H 0.6379 -0.0504 -0.5505
O 0.7595 -3.6093 0.1534
H 1.3426 -3.2831 0.8612
H -0.1304 -3.7313 0.5345
O 1.1363 3.7949 -1.3132
H 1.3509 4.6804 -1.6236
H 1.3598 3.1617 -2.0294
O 1.5405 1.6932 -3.0445
H 2.0802 1.7632 -3.8396
H 1.8910 0.9252 -2.5327
O -1.9040 -3.5597 1.0201
H -2.5187 -4.3011 1.0094
H -2.1383 -2.9624 0.2687
O 0.9107 2.0885 3.3248
H 1.3307 2.5440 4.0611
H 1.4056 2.3263 2.4952
O 2.0961 -0.4878 -1.5624
H 1.8425 -1.3479 -1.9587
H 2.8688 -0.6826 -0.9961
O -3.3645 0.5127 2.4095
H -3.6622 0.4474 1.4308
H -2.8646 -0.3470 2.6577
H -2.7046 1.3022 2.4917
O 4.5458 1.4098 0.4379
H 4.5835 0.4362 0.4397
H 5.3811 1.7313 0.7895




                            




